[TITLE]
Scenario: Base 
Date: 26/07/2018 9:49:52 p. m. 

[JUNCTIONS]
Punto"K" 37.0881614685059 0 
Punto"C" 61.8251724243164 0 
Punto"F" 11.207423210144 0 
Punto"A" 116.929389953613 0 
Punto"G" 25.2409076690674 0 
Punto"J" 53.6606101989746 0 
Punto"I" 37.2510147094727 0 
Punto"B" 102.055824279785 0 
Punto"H" 50.4184074401855 0 
Punto"L" 45.10302734375 0 
Punto"D" 46.8427658081055 0 
Punto"E" 37.0737113952637 0 
J-33 60.1770057678223 0 
J-34 49.3314781188965 0 
J-35 48.7672119140625 0 
J-36 51.8940849304199 0 
J-37 52.0383949279785 0 
J-38 80.0390777587891 0 
J-39 80.210319519043 0 
J-40 51.2015419006348 0 
J-41 52.052848815918 0 
J-42 50.9971504211426 0 
J-43 49.3369941711426 0 
J-44 30.9892921447754 0 
J-45 29.1558170318604 0 
J-46 41.6753082275391 0 
J-47 62.7967567443848 0 
J-48 63.4948501586914 0 
J-49 58.2531852722168 0 
J-50 60.931282043457 0 
J-51 36.9672355651855 0 
J-52 92.689826965332 0 
J-53 91.6627655029297 0 
J-54 36.8861312866211 0 
J-55 56.8369903564453 0 
J-56 57.2628517150879 0 
J-57 37.0025749206543 0 
J-58 68.9997024536133 0 
J-59 36.6067504882813 0 
J-60 9.90186500549316 0 
J-61 9.23948764801025 0 
J-62 34.0003662109375 0 
J-63 33.8609313964844 0 
J-64 24.7691421508789 0 
J-65 24.7880992889404 0 
J-66 9.45796680450439 0 
J-67 86.9261322021484 0 
J-68 91.7539749145508 0 
J-69 61.0051345825195 0 
J-70 44.9675178527832 0 
J-71 76.726692199707 0 
J-72 84.0506744384766 0 
J-73 50.9114570617676 0 
J-74 73.3427581787109 0 
J-75 84.5224761962891 0 
J-76 98.4389038085938 0 
J-77 65.7793121337891 0 
J-78 83.1430587768555 0 
J-79 94.7589416503906 0 
J-80 72.4089660644531 0 
J-81 52.1532974243164 0 
J-82 54.0861511230469 0 
J-83 53.3720512390137 0 
J-84 53.9555625915527 0 
J-85 58.1914443969727 0 
J-86 102.40251159668 0 
J-87 40.107006072998 0 
J-88 35 0 
J-89 77.4265594482422 0 
J-90 87.6092071533203 0 
J-91 61.5856132507324 0 
J-92 46.4369812011719 0 
J-93 46.7815017700195 0 
J-94 21.9540309906006 0 
J-95 21.5561752319336 0 
J-96 48.7420387268066 0 
J-97 53.0264739990234 0 
J-98 50.8668479919434 0 
J-99 57.8935279846191 0 
J-100 67 0 
J-101 39.4231452941895 0 
J-102 65.3400497436523 0 
J-103 46.9139785766601 0 
J-104 53.8439483642578 0 
J-105 25.9902210235596 0 
J-106 46.4136161804199 0 
J-107 49.2468757629395 0 
J-108 44.8588638305664 0 
J-109 65.863410949707 0 
J-110 65.9507751464844 0 
J-111 87.1630172729492 0 
J-112 6.29196500778198 0 
J-113 44.5815467834473 0 
J-114 48.6125373840332 0 
J-115 56.3001022338867 0 
J-116 8.52734661102295 0 
J-117 54.4301376342773 0 
J-118 24.0642738342285 0 
J-119 43.8563232421875 0 
J-120 41.2860908508301 0 
J-121 33.0790710449219 0 
J-122 75.6817016601563 0 
J-123 34.6795654296875 0 
J-124 32.1942749023438 0 
J-125 70.4428634643555 0 
J-126 5.51905202865601 0 
J-127 35.643440246582 0 
J-128 89.2000350952148 0 
J-129 41.8839530944824 0 
J-130 32.3577117919922 0 
J-131 56.8122863769531 0 
J-132 59.2558822631836 0 
J-133 56.6007308959961 0 
J-134 19.5621719360352 0 
J-135 20.0509738922119 0 
J-136 15.7089767456055 0 
J-137 15.0451459884644 0 
J-138 12.267107963562 0 
J-139 11.3198137283325 0 
J-140 7.54260492324829 0 
J-141 47.8828887939453 0 
J-142 43.1025505065918 0 
J-143 16.8024711608887 0 
J-144 23.677074432373 0 
J-145 16.6646709442139 0 
J-146 37.6981773376465 0 
J-147 44.2715682983398 0 
J-148 37.7264442443848 0 
J-149 38.5764312744141 0 
J-150 50.0503349304199 0 
J-151 42.4420623779297 0 
J-152 62.6234016418457 0 
J-153 48.809684753418 0 
J-154 34.8339653015137 0 
J-155 44.9368133544922 0 
J-156 50.8500518798828 0 
J-157 28.5463409423828 0 
J-158 57.0447616577148 0 
J-159 60.6531448364258 0 
J-160 46.2870903015137 0 
J-161 51.2933349609375 0 
J-162 60.2597923278809 0 
J-163 60.8972663879395 0 
J-164 46.9256629943848 0 
J-165 49.7857704162598 0 
J-166 49.8629570007324 0 
J-167 50.5898857116699 0 
J-168 52.2562141418457 0 
J-169 3.35060048103333 0 
J-170 3.36320567131042 0 
J-171 58.5121574401856 0 
J-172 57.747257232666 0 
J-173 54.9767532348633 0 
J-174 55.1955451965332 0 
J-175 49.3966217041016 0 
J-176 52.3195037841797 0 
J-177 25.0389270782471 0 
J-178 47.5089569091797 0 
J-179 46.9162826538086 0 
J-180 47.9236488342285 0 
J-181 68.2997436523438 0 
J-182 61.1760063171387 0 
J-183 47.9701881408691 0 
J-184 51.6936264038086 0 
J-185 50.8831787109375 0 
J-186 2.67817807197571 0 
J-187 64.1149063110352 0 
J-188 40.7919807434082 0 
J-189 35.8081741333008 0 
J-190 46.2166366577148 0 
J-191 39.5665855407715 0 
J-192 46.0972328186035 0 
J-193 60.9881286621094 0 
J-194 11.8076229095459 0 
J-195 2.08178663253784 0 
J-196 1.29333090782166 0 
J-197 40.3395500183105 0 
J-198 44.874870300293 0 
J-199 55.1584205627441 0 
J-201 51.3046188354492 0 
J-202 1.93069505691528 0 
J-203 70.1238174438477 0 
J-204 52.4351043701172 0 
J-205 48.2909965515137 0 
J-206 2.71856665611267 0 
J-207 43.3061676025391 0 
J-208 64.2460250854492 0 
J-209 9.56462383270264 0 
J-210 10.5455379486084 0 
J-211 55.0477867126465 0 
J-212 81.8319854736328 0 
J-213 78.8924026489258 0 
J-214 47.1523475646973 0 
J-215 43.9001579284668 0 
J-216 44.9725532531738 0 
J-217 40.9487495422363 0 
J-218 44.3859672546387 0 
J-219 59.2242393493652 0 
J-220 59.2166862487793 0 
J-221 43.7302169799805 0 
J-222 51.6587562561035 0 
J-223 52.6777725219727 0 
J-224 45.2330627441406 0 
J-225 45.8782272338867 0 
J-226 21.3581771850586 0 
J-227 23.5 0 
J-228 26.5 0 
J-229 49.8358535766602 0 
J-230 77.6133880615234 0 
J-231 75.5644073486328 0 
J-232 97.0967712402344 0 
J-233 49.7992210388184 0 
J-234 45.8286666870117 0 
J-235 48.1894416809082 0 
J-236 70.781135559082 0 
J-237 2.45836353302002 0 
J-238 4.58689498901367 0 
J-239 5.89340734481812 0 
J-240 2.32052659988403 0 
J-241 49.2766876220703 0 
J-242 11.6769685745239 0 
J-243 1.99018239974976 0 
J-244 50.9899444580078 0 
J-245 48.8399085998535 0 
J-246 43.5678787231445 0 
J-247 100.082099914551 0 
J-248 3 0 
J-249 68.8034591674805 0 
J-250 2.31210613250732 0 
J-251 48.5187454223633 0 
J-252 45.0033721923828 0 
J-253 73.1749801635742 0 
J-254 67.2172698974609 0 
J-255 48.3598747253418 0 
J-256 64.9853057861328 0 
J-257 63.0297966003418 0 
J-258 43.347728729248 0 
J-259 45.268970489502 0 
J-260 43.7685356140137 0 
J-261 27.8055973052979 0 
J-262 29.8588314056396 0 
J-263 23.0823745727539 0 
J-264 55.6047821044922 0 
J-265 76.8864593505859 0 
J-266 73.7416763305664 0 
J-267 62.7870254516602 0 
J-268 28.6841564178467 0 
J-269 35.4934043884277 0 
J-270 38.9439239501953 0 
J-271 38.6173286437988 0 
J-272 30.5 0 
J-273 102.681098937988 0 
J-274 57.2740173339844 0 
J-275 57.2511405944824 0 
J-276 64.1992340087891 0 
J-277 62.5445556640625 0 
J-278 10.4753303527832 0 
J-279 59.1156959533691 0 
J-280 15.6743822097778 0 
J-281 54.7922973632813 0 
J-282 65.7355270385742 0 
J-283 72.7008209228516 0 
J-284 54.1819686889648 0 
J-285 44.3358993530273 0 
J-286 71.0968475341797 0 
J-287 2.5 0 
J-288 1.5 0 
J-289 91.2704391479492 0 
J-290 46.0671081542969 0 
J-291 62.6900444030762 0 
J-292 78.6220779418945 0 
J-293 47.9756851196289 0 
J-294 50.326976776123 0 
J-295 12.0647392272949 0 
J-296 53.3105278015137 0 
J-297 72.9658432006836 0 
J-298 41.670970916748 0 
J-299 73.2037811279297 0 
J-300 62.6120491027832 0 
J-301 50.0451965332031 0 
J-302 16.9334964752197 0 
J-303 58.4579010009766 0 
J-304 109.131889343262 0 
J-305 17.2857055664063 0 
J-306 61.0773429870605 0 
J-307 87.3409957885742 0 
J-308 13.1534862518311 0 
J-309 17.2114677429199 0 
J-310 20.5 0 
J-311 67.3936538696289 0 
J-312 37.2244758605957 0 
J-313 44.1709632873535 0 
J-314 18.2931785583496 0 
J-315 18.375114440918 0 
J-316 60.0434417724609 0 
J-317 48.0928497314453 0 
J-318 18.5 0 
J-319 71.4565505981445 0 
J-320 50.5119514465332 0 
J-321 59.5736351013184 0 
J-322 46.0664100646973 0 
J-323 45.4582557678223 0 
J-324 33.5348892211914 0 
J-325 48.8724021911621 0 
J-326 61.0695304870605 0 
J-327 83.5468063354492 0 
J-328 59.7500152587891 0 
J-329 77.7384796142578 0 
J-330 74.6577606201172 0 
J-331 23.9918117523193 0 
J-332 72.4662628173828 0 
J-333 50.2808303833008 0 
J-334 44.7129211425781 0 
J-335 52.6560974121094 0 
J-336 73.1320037841797 0 
J-337 50.8197021484375 0 
J-338 72.1307678222656 0 
J-339 49.3338851928711 0 
J-340 45.2008552551269 0 
J-341 71.1366348266602 0 
J-342 2.74950361251831 0 
J-343 45.5453948974609 0 
J-344 62.2452964782715 0 
J-345 58.7509803771973 0 
J-346 44.0823135375977 0 
J-347 48.6911239624023 0 
J-348 53.4255447387695 0 
J-349 60.072940826416 0 
J-350 44.7917556762695 0 
J-351 23.5458068847656 0 
J-352 82.4993209838867 0 
J-353 75.4855728149414 0 
J-354 44.3908576965332 0 
J-355 23.2671546936035 0 
J-356 44.0289115905762 0 
J-357 72.6853103637695 0 
J-358 2.3344988822937 0 
J-359 33.5934143066406 0 
J-360 30 0 
J-361 73.0903091430664 0 
J-362 20.9847469329834 0 
J-363 42.8640747070312 0 
J-364 45.3873176574707 0 
J-365 45.3893661499023 0 
J-366 49.5372085571289 0 
J-367 28.0971698760986 0 
J-368 26 0 
J-369 27.0861968994141 0 
J-370 102.603996276855 0 
J-371 39.5 0 
830-A 1.94897055625916 0 
830-B 1.94897055625916 0 
831-A 61.6440238952637 0 
831-B 61.6440238952637 0 
832-A 61.2144241333008 0 
832-B 61.2144241333008 0 
833-A 117.767417907715 0 
833-B 117.767417907715 0 
834-A 96.975959777832 0 
834-B 96.975959777832 0 
835-A 54.2331314086914 0 
835-B 54.2331314086914 0 
836-A 69.3188934326172 0 
836-B 69.3188934326172 0 
816-A 51.3448944091797 0 
816-B 51.3448944091797 0 
817-A 37.279411315918 0 
817-B 37.279411315918 0 
818-A 25.1164665222168 0 
818-B 25.1164665222168 0 
819-A 46.202262878418 0 
819-B 46.202262878418 0 
820-A 40.9478645324707 0 
820-B 40.9478645324707 0 
823-A 36.7114562988281 0 
823-B 36.7114562988281 0 
824-A 46.6380043029785 0 
824-B 46.6380043029785 0 
826-A 30.1031646728516 0 
826-B 30.1031646728516 0 
827-A 9.99712181091309 0 
827-B 9.99712181091309 0 
828-A 24.2447605133057 0 
828-B 24.2447605133057 0 
829-A 2.82901072502136 0 
829-B 2.82901072502136 0 

[TANKS]
RAP-02 118 3.30000000000001 0.500000000000028 5.60000000000001 5.85 0.00283168463686774 

[DEMANDS]
J-33 0.223768
J-34 0.0827415
J-35 0.0666538
J-36 0.279349
J-37 0.0895317
J-38 0.0466794
J-39 0.071728
J-40 0.0377237
J-41 0.0745292
J-42 0.0557872
J-43 0.122574
J-46 0.0680182
J-47 0.106727
J-48 0.189138
J-49 0.0513106
J-51 0.130498
J-52 0.345764
J-55 0.0835162
J-56 0.0242721
J-57 0.34464
J-58 0.0491689
J-59 0.232837
J-60 0.0422377
J-61 0.0276544
J-62 0.0832962
J-63 0.138711
J-65 0.0465611
J-66 0.0546464
J-67 0.145073
J-68 0.0801608
J-69 0.0313149
J-70 0.0746821
J-71 0.0648136
J-72 0.0583386
J-73 0.193768
J-74 0.0442713
J-75 0.104315
J-76 0.0623281
J-77 0.0723681
J-78 0.150337
J-79 0.149972
J-80 0.116702
J-81 0.22665
J-83 0.0808147
J-84 0.114528
J-85 0.0531702
J-86 0.131386
J-87 0.226729
J-88 0.227873
J-89 0.0689164
J-90 0.326498
J-91 0.197149
J-92 0.213119
J-93 0.101392
J-94 0.0203453
J-95 0.0287295
J-96 0.125969
J-97 0.090859
J-98 0.312585
J-99 0.159804
J-100 0.0585588
J-102 0.131921
J-103 0.130883
J-104 0.193302
J-105 0.0784232
J-106 0.075539
J-107 0.25555
J-108 0.0216709
J-109 0.0784364
J-110 0.22109
J-111 0.105098
J-112 0.108386
J-113 0.0490383
J-114 0.107783
J-115 0.311289
J-116 0.113653
J-117 0.0524702
J-118 0.0845688
J-119 0.0650617
J-120 0.197572
J-121 0.119578
J-122 0.0649217
J-123 0.446374
J-124 0.210289
J-125 0.119457
J-126 0.092657
J-127 0.281213
J-128 0.126509
J-129 0.241301
J-130 0.383579
J-131 0.232451
J-132 0.33663
J-133 0.286326
J-134 0.10442
J-135 0.141188
J-136 0.0520115
J-137 0.0695632
J-139 0.0286562
J-140 2.0
J-141 0.102014
J-142 0.156732
J-143 0.127831
J-144 0.0707769
J-145 0.34973
J-146 0.0495415
J-147 0.0627223
J-148 0.155576
J-149 0.143928
J-150 0.126674
J-151 0.0973819
J-152 0.122418
J-153 0.131758
J-154 0.0979039
J-155 0.185959
J-156 0.308674
J-157 0.338984
J-158 0.0963209
J-159 0.0663629
J-160 0.0466623
J-161 0.298645
J-162 0.0293961
J-163 0.0689078
J-164 0.0687674
J-165 0.200669
J-166 0.0943348
J-167 0.0875661
J-168 0.0649696
J-170 0.0772485
J-171 0.104752
J-172 0.0691672
J-173 0.074123
J-174 0.0543202
J-175 0.0518697
J-176 0.0312467
J-177 0.228687
J-178 0.0777404
J-179 0.0585134
J-180 0.0997484
J-182 0.170926
J-183 0.1183
J-184 0.0876868
J-185 0.0743339
J-186 0.148308
J-187 0.0816394
J-188 0.106035
J-190 0.104454
J-191 0.0562256
J-192 0.101153
J-193 0.240549
J-194 0.130829
J-195 0.241847
J-196 0.122296
J-197 0.0691647
J-198 0.214371
J-199 0.252668
J-201 0.112114
J-202 0.232567
J-203 0.162988
J-204 0.652133
J-205 0.130239
J-206 0.303738
J-207 0.024962
J-208 0.0254407
J-209 0.0751988
J-210 0.0504204
J-211 0.118886
J-212 0.0286426
J-214 0.0271935
J-215 0.0249293
J-216 0.0549391
J-217 0.176863
J-218 0.0326704
J-219 0.0431958
J-220 0.0215069
J-221 0.0479957
J-222 0.0516228
J-223 0.0828332
J-224 0.0525575
J-225 0.0997311
J-226 0.108832
J-227 0.0518834
J-228 0.185791
J-229 0.0436688
J-230 0.0536125
J-231 0.0483993
J-233 0.761837
J-234 0.0494086
J-235 0.1355
J-236 0.0416362
J-237 0.11787
J-238 0.0530694
J-239 0.0296598
J-240 0.0616637
J-241 0.0914423
J-242 0.120293
J-244 0.0612908
J-245 0.172054
J-246 0.0295112
J-247 0.1174
J-248 0.0451329
J-249 0.0669502
J-250 0.0452758
J-251 0.104213
J-252 0.0784291
J-253 0.0514285
J-254 0.170468
J-255 0.0330781
J-256 0.0972372
J-257 0.118116
J-258 0.115931
J-259 0.0430317
J-260 0.0690316
J-261 0.0586485
J-262 0.148127
J-263 0.0240234
J-264 0.158018
J-265 0.0947929
J-266 0.073267
J-267 0.0437053
J-268 0.184797
J-269 0.210492
J-270 0.128263
J-271 0.145248
J-272 0.058604
J-273 0.0573978
J-274 0.0518119
J-275 0.117299
J-276 0.0605619
J-277 0.0337258
J-278 0.0266572
J-279 0.0694215
J-280 0.190358
J-282 0.0772588
J-283 0.0561736
J-284 0.194104
J-285 0.0836344
J-286 0.0610015
J-287 0.059834
J-288 0.022338
J-289 0.0455815
J-290 0.0821627
J-291 0.106408
J-292 0.0732699
J-293 0.0665027
J-294 0.0773596
J-295 0.092816
J-296 0.0664236
J-297 0.0712416
J-298 0.309938
J-299 0.0509694
J-300 0.199556
J-301 0.0670646
J-302 0.0547837
J-303 0.0931176
J-304 0.0578625
J-305 0.0769058
J-306 0.0785942
J-307 0.0489603
J-308 0.0874625
J-309 0.0427764
J-310 0.06659
J-311 0.0871104
J-312 0.07334
J-313 0.142288
J-314 0.145298
J-315 0.124041
J-316 0.118298
J-317 0.0627604
J-318 0.0671858
J-319 0.0764954
J-320 0.315752
J-321 0.19474
J-322 0.139208
J-323 0.198576
J-324 0.138084
J-325 0.268384
J-326 0.0872814
J-327 0.0954768
J-328 0.184571
J-329 0.075068
J-330 0.062767
J-331 0.148369
J-332 0.16576
J-333 0.0833027
J-334 0.0704366
J-335 0.0700484
J-336 0.0697856
J-337 0.0543904
J-338 0.0781435
J-339 0.193599
J-340 0.0903066
J-341 0.0857406
J-342 0.0583498
J-343 0.0920937
J-344 0.115686
J-345 0.234863
J-346 0.0528561
J-347 0.0998473
J-348 0.104066
J-349 0.0988623
J-350 0.11541
J-351 0.0749176
J-352 0.0991544
J-353 0.1151
J-354 0.219372
J-355 0.0499956
J-356 0.153844
J-357 0.149485
J-358 0.106229
J-359 0.08909
J-360 0.162262
J-361 0.20652
J-362 0.135619
J-363 0.285852
J-364 0.181197
J-365 0.154779
J-366 0.230607
J-367 0.0954573
J-368 0.101818
J-369 0.188833
J-370 0.125009
J-371 0.218736

[EMITTERS]

[VALVES]
CV-03 830-A 830-B 150 FCV 0 0 
CD-03 831-A 831-B 150 FCV 0 0 
CD-02 832-A 832-B 150 FCV 0 0 
CD-01 833-A 833-B 150 FCV 0 0 
CV-01 834-A 834-B 100 FCV 0 0 
CD-04 835-A 835-B 150 FCV 0 0 
CV-02 836-A 836-B 100 FCV 0 0 
CRP-01 816-A 816-B 80 PRV 35 0 
CRP-02 817-A 817-B 80 PRV 25 0 
CRP-03 818-A 818-B 80 PRV 28 0 
CRP-04 819-A 819-B 80 PRV 40 0 
CRP-05 820-A 820-B 80 PRV 45 0 
CRP-06 823-A 823-B 80 PRV 28 0 
CRP-07 824-A 824-B 80 PRV 42 0 
CRP-08 826-A 826-B 100 PRV 25 0 
CRP-09 827-A 827-B 80 PRV 36 0 
CRP-10 828-A 828-B 80 PRV 32 0 
CRP-11 829-A 829-B 80 PRV 38 0 

[PIPES]
P-1 Punto"K" 823-A 6.29455361338118 100.8 130 0 
P-2 Punto"C" 831-A 5.4709358625241 152.4 130 0 
P-3 Punto"F" 827-A 8.13534946960788 100.8 130 0 
P-4 RAP-02 Punto"A" 5.95068937786463 255.4 130 0 
P-5 Punto"G" 828-A 9.32826610460553 100.8 130 0 
P-6 Punto"J" 835-A 8.34183752190906 152.4 130 0 
P-7 Punto"I" 817-A 8.25857509330707 100.8 130 0 
P-8 Punto"B" 834-A 12.0726882393323 100.8 130 0 
P-9 Punto"A" 833-A 13.7460275702851 152.4 130 0 
P-10 Punto"H" 816-A 10.3900038086669 100.8 130 0 
P-11 Punto"C" 832-A 13.9724822541449 152.4 130 0 
P-12 Punto"L" 824-A 14.4927315857223 100.8 130 0 
P-13 Punto"D" 819-A 18.2537036347316 100.8 130 0 
P-14 Punto"E" 820-A 37.8755248871057 100.8 130 0 
P-15 Punto"A" Punto"B" 62.2441845580545 255.4 130 0 
P-16 Punto"J" 836-A 95.9512272753477 100.8 130 0 
P-17 Punto"D" Punto"E" 94.980128688151 152.4 130 0 
P-18 Punto"K" Punto"L" 125.881079464712 152.4 130 0 
P-19 830-B Punto"F" 147.098454589396 152.4 130 0 
P-20 Punto"B" Punto"C" 160.496771152727 204.2 130 0 
P-21 Punto"F" Punto"G" 240.522761268623 100.8 130 0 
P-22 832-B Punto"H" 210.502104798686 152.4 130 0 
P-23 Punto"G" 829-A 322.10318111189 100.8 130 0 
P-24 831-B Punto"D" 357.289527715846 152.4 130 0 
P-25 Punto"H" Punto"I" 365.51969524441 100.8 130 0 
P-26 Punto"I" 818-A 456.378878725912 100.8 130 0 
P-27 835-B Punto"K" 449.651900065412 152.4 130 0 
P-28 Punto"L" 826-A 992.650945274824 152.4 130 0 
P-29 Punto"E" 830-A 1006.40418288765 152.4 130 0 
P-30 833-B Punto"J" 1230.67177441132 152.4 130 0 
P-32 J-34 J-35 1.40019761596845 99.4 140 0 
P-33 J-36 J-37 1.68654580203508 99.4 140 0 
P-34 J-39 J-38 2.12649175916389 99.4 140 0 
P-35 J-40 J-41 4.07866648079292 99.4 140 0 
P-36 J-43 J-42 4.3043820475787 99.4 140 0 
P-37 J-45 J-44 4.4665495752861 99.4 140 0 
P-38 820-B J-46 5.97290993907044 99.4 140 0 
P-39 J-47 J-48 6.49961961778784 99.4 140 0 
P-40 J-49 J-50 7.01600481402434 99.4 140 0 
P-41 823-B J-51 11.4590530891269 99.4 140 0 
P-42 J-53 J-52 7.81965745502091 99.4 140 0 
P-43 834-B J-53 8.84296830174948 99.4 140 0 
P-44 817-B J-54 12.2387768544431 99.4 140 0 
P-45 J-55 J-56 10.1366368467856 99.4 140 0 
P-46 J-54 J-57 10.4224156576394 99.4 140 0 
P-47 J-50 J-58 15.0580295763287 99.4 140 0 
P-48 J-54 J-59 15.334664274742 99.4 140 0 
P-49 J-61 J-60 15.6056588677369 99.4 140 0 
P-50 J-62 J-63 15.9936847893484 99.4 140 0 
P-51 J-64 J-65 16.2963650061823 99.4 140 0 
P-52 818-B J-64 23.0186962310209 99.4 140 0 
P-53 J-66 J-61 16.9981768458484 99.4 140 0 
P-54 J-68 J-67 18.6827105421208 99.4 140 0 
P-55 J-42 J-69 18.700788011334 99.4 140 0 
P-56 J-46 J-70 19.0396912128299 99.4 140 0 
P-57 J-72 J-71 19.8056605454336 99.4 140 0 
P-58 816-B J-73 25.7770583613404 99.4 140 0 
P-59 J-38 J-74 20.9683238425275 99.4 140 0 
P-60 J-67 J-75 21.856652741201 99.4 140 0 
P-61 J-76 J-68 21.9999571090599 99.4 140 0 
P-62 J-77 J-48 22.2447301325793 99.4 140 0 
P-63 J-79 J-78 22.7090533427246 99.4 140 0 
P-64 J-78 J-80 22.8435431302083 99.4 140 0 
P-65 J-81 J-82 23.0876129889062 99.4 140 0 
P-66 J-53 J-79 23.1129938703009 99.4 140 0 
P-67 J-83 J-49 23.1477729835527 99.4 140 0 
P-68 J-84 J-43 35.0278978208719 99.4 140 0 
P-69 J-50 J-85 24.4757726808337 99.4 140 0 
P-70 J-52 J-86 33.3747476145707 99.4 140 0 
P-71 J-87 J-88 25.1606207776281 99.4 140 0 
P-72 J-89 J-90 25.2542112519765 99.4 140 0 
P-73 J-91 J-47 25.3508038498241 99.4 140 0 
P-74 J-92 J-93 25.7128519997277 99.4 140 0 
P-75 J-94 J-95 26.0013634448091 99.4 140 0 
P-76 J-96 J-97 36.0663935232362 99.4 140 0 
P-77 J-73 J-98 26.624852364879 99.4 140 0 
P-78 J-99 J-100 26.7873045010074 99.4 140 0 
P-79 J-101 J-62 36.1902112030276 99.4 140 0 
P-80 J-102 J-77 27.8195921429155 99.4 140 0 
P-81 J-35 J-103 27.5508655951391 99.4 140 0 
P-82 J-73 J-36 27.6349822069838 99.4 140 0 
P-83 J-104 J-99 27.8459530103195 99.4 140 0 
P-84 J-44 J-105 28.3438393038743 99.4 140 0 
P-85 J-107 J-106 28.5037629450823 99.4 140 0 
P-86 J-106 J-108 30.7629298727802 99.4 140 0 
P-87 J-110 J-109 30.9028674231557 99.4 140 0 
P-88 J-111 J-76 32.3396246922177 99.4 140 0 
P-89 J-82 J-55 43.3489535801665 99.4 140 0 
P-90 J-112 J-61 33.1885105894165 99.4 140 0 
P-91 J-113 J-114 34.4478018605995 99.4 140 0 
P-92 J-108 J-113 35.292624022395 99.4 140 0 
P-93 J-104 J-115 35.3686453624269 99.4 140 0 
P-94 J-45 J-116 40.3473875337747 99.4 140 0 
P-95 J-117 J-40 38.4622429414625 99.4 140 0 
P-96 J-105 J-118 39.0031706013541 99.4 140 0 
P-97 J-37 J-104 47.2285705384948 99.4 140 0 
P-98 J-114 J-34 40.2351286291477 99.4 140 0 
P-99 J-93 J-101 42.2894257718625 99.4 140 0 
P-100 J-119 J-84 41.1302626644066 99.4 140 0 
P-101 J-120 J-92 41.5691776530168 99.4 140 0 
P-102 J-38 J-67 43.4491556579394 99.4 140 0 
P-103 J-70 J-83 52.4324574979709 99.4 140 0 
P-104 J-63 J-121 44.598613696198 99.4 140 0 
P-105 J-74 J-75 44.8168624463445 99.4 140 0 
P-106 J-80 J-122 47.1729882551235 99.4 140 0 
P-107 J-116 J-112 62.3703266759788 99.4 140 0 
P-108 J-88 J-123 50.2773306232992 99.4 140 0 
P-109 J-121 J-87 51.4648340273375 99.4 140 0 
P-110 J-67 J-90 55.9674168013322 99.4 140 0 
P-111 J-124 J-123 51.804922793294 99.4 140 0 
P-112 J-69 J-117 55.9997532354334 99.4 140 0 
P-113 J-103 J-96 79.9763016922043 99.4 140 0 
P-114 J-109 J-125 56.0859178867809 99.4 140 0 
P-115 J-71 J-39 66.0384986781982 99.4 140 0 
P-116 J-75 J-89 67.2441993943397 99.4 140 0 
P-117 J-60 J-126 78.7898077215586 99.4 140 0 
P-118 J-57 J-127 67.5187328677554 99.4 140 0 
P-119 J-86 J-72 76.0250465037089 99.4 140 0 
P-120 J-90 J-128 68.9695059991611 99.4 140 0 
P-121 J-129 J-119 100.486095071627 99.4 140 0 
P-122 J-72 J-111 73.9587612262761 99.4 140 0 
P-123 J-130 J-62 71.7412309026932 99.4 140 0 
P-124 J-41 J-131 97.5537334098113 99.4 140 0 
P-125 J-121 J-124 73.9076627070121 99.4 140 0 
P-126 J-46 J-129 75.4087249246832 99.4 140 0 
P-127 J-132 J-102 78.1472908373147 99.4 140 0 
P-128 J-115 J-81 78.6928134131105 99.4 140 0 
P-129 J-112 J-126 89.3973782157276 99.4 140 0 
P-130 J-116 J-66 106.000617199164 99.4 140 0 
P-131 J-103 J-81 88.6796711704274 99.4 140 0 
P-132 J-59 J-130 93.3737203061136 99.4 140 0 
P-133 J-98 J-107 93.6490990692316 99.4 140 0 
P-134 J-48 J-110 189.021270985268 99.4 140 0 
P-135 J-37 J-132 103.094142965971 99.4 140 0 
P-136 J-98 J-133 104.414740652388 99.4 140 0 
P-137 J-134 J-135 104.494376757897 99.4 140 0 
P-138 J-137 J-136 104.640321265113 99.4 140 0 
P-139 J-133 J-91 104.809308249552 99.4 140 0 
P-140 J-139 J-138 104.993838188715 99.4 140 0 
P-141 J-95 J-135 106.056711471216 99.4 140 0 
P-142 J-57 J-120 126.126918119914 99.4 140 0 
P-143 J-64 J-94 193.796870191287 99.4 140 0 
P-144 J-65 J-134 237.84785665424 99.4 140 0 
P-145 J-137 J-139 240.352825892738 99.4 140 0 
P-146 J-136 J-138 240.4555365877 99.4 140 0 
P-147 J-134 J-136 243.669387015651 99.4 140 0 
P-148 J-135 J-137 243.836566201786 99.4 140 0 
P-149 J-138 J-140 611.196954970018 99.4 140 0 
P-150 826-B J-45 7.75398496067967 144.6 140 0 
P-151 J-142 J-141 24.72064989472 99.4 140 0 
P-152 J-144 J-143 24.7960039159682 99.4 140 0 
P-153 J-143 J-145 36.796384726868 99.4 140 0 
P-154 J-51 J-144 76.5772267670201 99.4 140 0 
P-155 J-146 J-147 48.9999851881255 99.4 140 0 
P-156 J-51 J-148 53.2031985839103 99.4 140 0 
P-157 J-150 J-149 55.6219905948084 99.4 140 0 
P-158 J-151 J-142 60.6625082593765 99.4 140 0 
P-159 J-153 J-152 68.3277905995203 99.4 140 0 
P-160 J-143 J-154 134.837244084659 99.4 140 0 
P-161 J-156 J-155 146.07143697472 99.4 140 0 
P-162 J-145 J-157 280.83782090014 99.4 140 0 
P-163 J-153 J-158 23.3784282642691 81.4 140 0 
P-164 J-141 J-159 26.8959987304839 81.4 140 0 
P-165 J-161 J-160 27.5146303574463 81.4 140 0 
P-166 J-162 J-163 47.1345970292649 81.4 140 0 
P-167 J-161 J-164 65.3829308759069 81.4 140 0 
P-168 J-166 J-165 2.23920435173775 99.4 140 0 
P-169 J-168 J-167 3.64093721347299 99.4 140 0 
P-170 J-169 J-170 3.78938823670465 99.4 140 0 
P-171 J-171 J-172 5.04101670044275 99.4 140 0 
P-172 J-174 J-173 6.41927991281783 99.4 140 0 
P-173 J-176 J-175 6.59610307657296 99.4 140 0 
P-174 828-B J-177 9.55992831240765 99.4 140 0 
P-175 824-B J-178 10.749754164766 99.4 140 0 
P-176 819-B J-179 13.673908946922 99.4 140 0 
P-177 J-178 J-180 11.6511154900174 99.4 140 0 
P-178 J-162 J-168 14.5516758695879 99.4 140 0 
P-179 J-181 J-162 14.8425941559212 99.4 140 0 
P-180 J-172 J-174 15.9066149513184 99.4 140 0 
P-181 J-182 J-171 16.0134194440228 99.4 140 0 
P-182 J-179 J-183 17.5434826747965 99.4 140 0 
P-183 J-175 J-151 19.750527433343 99.4 140 0 
P-184 J-184 J-166 20.5204841853038 99.4 140 0 
P-185 J-167 J-142 20.5574966933962 99.4 140 0 
P-186 J-178 J-185 21.8393261561597 99.4 140 0 
P-187 J-141 J-153 24.6153234393342 99.4 140 0 
P-188 J-152 J-150 22.9000899601401 99.4 140 0 
P-189 J-186 J-169 24.0053794356819 99.4 140 0 
P-190 J-187 J-33 25.335990038789 99.4 140 0 
P-191 J-188 J-184 26.3810711729319 99.4 140 0 
P-192 J-189 J-188 27.9987097568876 99.4 140 0 
P-193 J-172 J-190 35.1479053447503 99.4 140 0 
P-194 J-191 J-192 32.3253964592035 99.4 140 0 
P-195 J-193 J-187 33.8659692576383 99.4 140 0 
P-196 J-195 J-194 33.8481008544173 99.4 140 0 
P-197 827-B J-196 38.1490887049406 99.4 140 0 
P-198 J-33 J-181 40.0174664328932 99.4 140 0 
P-199 J-197 J-189 42.5073968804532 99.4 140 0 
P-200 J-198 J-146 39.5025226710047 99.4 140 0 
P-201 J-199 J-156 41.5616290494806 99.4 140 0 
P-203 J-149 J-197 67.3822777583185 99.4 140 0 
P-204 J-196 J-195 69.0989075828963 99.4 140 0 
P-205 J-180 J-201 93.2330676876619 99.4 140 0 
P-206 J-183 J-193 117.072496831133 99.4 140 0 
P-207 J-195 J-186 79.2918468648217 99.4 140 0 
P-208 J-170 J-202 88.976981339502 99.4 140 0 
P-209 J-203 J-204 93.9427351157807 99.4 140 0 
P-210 J-192 J-203 89.7765586937645 99.4 140 0 
P-211 J-190 J-205 91.5562816597614 99.4 140 0 
P-212 829-B J-206 133.294210159169 99.4 140 0 
P-213 J-165 J-182 175.200363385101 99.4 140 0 
P-214 J-148 J-198 194.705400352136 99.4 140 0 
P-215 J-204 J-199 281.870759532084 99.4 140 0 
P-216 J-190 J-207 5.42461859162851 81.4 140 0 
P-217 J-69 J-208 6.05414267854198 81.4 140 0 
P-218 J-209 J-210 6.84803178988133 81.4 140 0 
P-219 J-85 J-211 7.32017321168857 81.4 140 0 
P-220 J-212 J-213 9.41481379158519 81.4 140 0 
P-221 J-179 J-214 9.55597087913788 81.4 140 0 
P-222 J-216 J-215 9.55648130614009 81.4 140 0 
P-223 J-120 J-217 11.8501123943044 81.4 140 0 
P-224 J-205 J-218 12.3303835895094 81.4 140 0 
P-225 J-219 J-220 12.2645380223418 81.4 140 0 
P-226 J-166 J-221 12.6585276706494 81.4 140 0 
P-227 J-223 J-222 12.9441744773151 81.4 140 0 
P-228 J-216 J-224 13.3693195028417 81.4 140 0 
P-229 J-183 J-225 13.4683131812572 81.4 140 0 
P-230 J-145 J-226 17.5557429568848 81.4 140 0 
P-231 J-228 J-227 14.7047215534109 81.4 140 0 
P-232 J-175 J-229 14.9670900919574 81.4 140 0 
P-233 J-230 J-231 15.4431356322982 81.4 140 0 
P-234 J-128 J-232 15.5777139509942 81.4 140 0 
P-235 J-184 J-233 16.8371043104428 81.4 140 0 
P-236 J-235 J-234 16.0063544689568 81.4 140 0 
P-237 J-80 J-236 16.2582644092448 81.4 140 0 
P-238 J-237 J-238 16.4671586260251 81.4 140 0 
P-239 J-239 J-240 21.5287838045766 81.4 140 0 
P-240 J-117 J-241 23.9298532788324 81.4 140 0 
P-241 J-209 J-242 17.4507332732409 81.4 140 0 
P-242 J-213 J-39 17.9804524249356 81.4 140 0 
P-243 J-239 J-243 21.5852203548853 81.4 140 0 
P-244 J-84 J-244 19.7689108537294 81.4 140 0 
P-245 J-244 J-42 19.182144408593 81.4 140 0 
P-246 J-165 J-219 19.2419640756999 81.4 140 0 
P-247 J-245 J-176 19.2928709318747 81.4 140 0 
P-248 J-101 J-246 19.7279264147888 81.4 140 0 
P-249 J-232 J-247 26.1250575332058 81.4 140 0 
P-250 J-170 J-248 20.0633136062972 81.4 140 0 
P-251 J-100 J-249 20.7212141575008 81.4 140 0 
P-252 J-243 J-250 24.2051493263118 81.4 140 0 
P-253 J-251 J-252 20.8651101741081 81.4 140 0 
P-254 J-254 J-253 21.380977398389 81.4 140 0 
P-255 J-93 J-255 21.4415613965723 81.4 140 0 
P-256 J-256 J-257 21.429661385278 81.4 140 0 
P-257 J-245 J-258 21.6602605725297 81.4 140 0 
P-258 J-150 J-259 21.6488678560616 81.4 140 0 
P-259 J-131 J-260 21.8180654683106 81.4 140 0 
P-260 J-111 J-212 22.1322451412108 81.4 140 0 
P-261 J-238 J-239 23.0154412400072 81.4 140 0 
P-262 J-262 J-261 22.416568592598 81.4 140 0 
P-263 J-75 J-230 22.7668260158633 81.4 140 0 
P-264 J-60 J-263 22.941009448229 81.4 140 0 
P-265 J-264 J-251 23.7825727344602 81.4 140 0 
P-266 J-265 J-128 23.9577376975464 81.4 140 0 
P-267 J-77 J-266 24.6872593220524 81.4 140 0 
P-268 J-185 J-267 24.8106548891416 81.4 140 0 
P-269 J-205 J-223 24.9195327149252 81.4 140 0 
P-270 J-268 J-269 25.8987272948074 81.4 140 0 
P-271 J-271 J-270 25.4048171051656 81.4 140 0 
P-272 J-144 J-272 35.4066971658924 81.4 140 0 
P-273 J-90 J-273 25.5333761696908 81.4 140 0 
P-274 J-40 J-216 25.6583324907016 81.4 140 0 
P-275 J-211 J-235 25.6802983634959 81.4 140 0 
P-276 J-177 J-262 33.4717482255663 81.4 140 0 
P-277 J-70 J-274 26.7100641858513 81.4 140 0 
P-278 J-133 J-275 26.1786771735672 81.4 140 0 
P-279 J-219 J-276 26.572843037593 81.4 140 0 
P-280 J-244 J-277 40.8142877083934 81.4 140 0 
P-281 J-274 J-83 28.6786647063329 81.4 140 0 
P-282 J-105 J-278 27.3334382960997 81.4 140 0 
P-283 J-181 J-279 28.7220159067688 81.4 140 0 
P-284 J-242 J-280 33.5602918763259 81.4 140 0 
P-285 J-281 J-192 28.4153870740359 81.4 140 0 
P-286 J-201 J-282 28.9074418431907 81.4 140 0 
P-287 J-185 J-281 29.1593161252208 81.4 140 0 
P-288 J-85 J-283 29.1655239499216 81.4 140 0 
P-289 J-257 J-284 29.2986511997776 81.4 140 0 
P-290 J-285 J-252 29.3516990621272 81.4 140 0 
P-291 J-275 J-132 29.4567513333978 81.4 140 0 
P-292 J-187 J-286 29.4966158646461 81.4 140 0 
P-293 J-97 J-285 41.2758629749103 81.4 140 0 
P-294 J-237 J-287 30.6053595700909 81.4 140 0 
P-295 J-243 J-288 44.449878027153 81.4 140 0 
P-296 J-55 J-96 32.071140011079 81.4 140 0 
P-297 J-232 J-289 46.3164448467351 81.4 140 0 
P-298 J-212 J-68 32.4999937791747 81.4 140 0 
P-299 J-270 J-290 33.7890570882381 81.4 140 0 
P-300 J-41 J-291 34.0238654760946 81.4 140 0 
P-301 J-292 J-203 35.0613959490319 81.4 140 0 
P-302 J-107 J-293 35.4078243418915 81.4 140 0 
P-303 J-197 J-294 37.7545931885379 81.4 140 0 
P-304 J-238 J-295 50.1761008980034 81.4 140 0 
P-305 J-254 J-249 38.181020554118 81.4 140 0 
P-306 J-168 J-296 40.2308762778315 81.4 140 0 
P-307 J-109 J-297 52.2933866303769 81.4 140 0 
P-308 J-298 J-217 38.5849912767795 81.4 140 0 
P-309 J-58 J-299 39.7310173332813 81.4 140 0 
P-310 J-300 J-199 52.3240923676278 81.4 140 0 
P-311 J-174 J-301 53.7862406952016 81.4 140 0 
P-312 J-169 J-302 41.217326435079 81.4 140 0 
P-313 J-274 J-303 41.7477982327809 81.4 140 0 
P-314 J-247 J-304 42.009671609502 81.4 140 0 